test/fixtures/powermodels/case14/sol_ac_opf.json
{
  "termination_status": "LOCALLY_SOLVED",
  "objective": 8081.524735301402,
  "solution": {
    "baseMVA": 100,
    "branch": {
      "4": {
        "qf": -0.004786238274143136,
        "qt": 0.007856943663262688,
        "pt": -0.4763103173376489,
        "pf": 0.48915693205778626
      },
      "1": {
        "qf": -0.06364863125604042,
        "qt": 0.09399573882162007,
        "pt": -1.267671263694158,
        "pf": 1.296692384694366
      },
      "12": {
        "qf": 0.02660427291109379,
        "qt": -0.025110171971727827,
        "pt": -0.0757986959750925,
        "pf": 0.07651657231478802
      },
      "20": {
        "qf": 0.02423167872925784,
        "qt": -0.0232755213953702,
        "pt": -0.048358084538071465,
        "pf": 0.048827701149419575
      },
      "2": {
        "qf": 0.0636486325328867,
        "qt": -0.032050737734039374,
        "pt": -0.6261042917604216,
        "pf": 0.646610229844686
      },
      "6": {
        "qf": 0.04568820575236987,
        "qt": -0.05633969096277212,
        "pt": 0.11308193767886063,
        "pf": -0.11208812119352547
      },
      "11": {
        "qf": 0.045627231005008866,
        "qt": -0.04460275582655404,
        "pt": -0.06038350382803303,
        "pf": 0.06087271776694585
      },
      "13": {
        "qf": 0.07726576293977756,
        "qt": -0.0731768020393177,
        "pt": -0.16909012101209286,
        "pf": 0.17116646064182645
      },
      "5": {
        "qf": 0.01590142633199488,
        "qt": -0.03001051794653305,
        "pt": -0.365409950761718,
        "pf": 0.37277941684650423
      },
      "15": {
        "qf": 0.030133002522338657,
        "qt": -0.02017130063234075,
        "pt": -0.3134213314815115,
        "pf": 0.3134213314815115
      },
      "16": {
        "qf": 0.03204066202965062,
        "qt": -0.03163458587726042,
        "pt": -0.06471788570077425,
        "pf": 0.06487075294820062
      },
      "14": {
        "qf": -0.0805260430077935,
        "qt": 0.0827303957464151,
        "pt": 0.08494990585074669,
        "pf": -0.08494990585074669
      },
      "7": {
        "qf": 0.11575338846033355,
        "qt": -0.10531448266446392,
        "pt": 0.4949584857564557,
        "pf": -0.49164907249654655
      },
      "8": {
        "qf": -0.03993770308816808,
        "qt": 0.050393040485454836,
        "pt": -0.22847142563076486,
        "pf": 0.22847142563076486
      },
      "17": {
        "qf": 0.029520999515286556,
        "qt": -0.026724478604629804,
        "pt": -0.10064191546192854,
        "pf": 0.10195660505788094
      },
      "19": {
        "qf": 0.009110171971727827,
        "qt": -0.00905487668994014,
        "pt": -0.014737580137326723,
        "pf": 0.014798695975092507
      },
      "10": {
        "qf": 0.15137573834503634,
        "qt": -0.1090382444782696,
        "pt": -0.4205557567656839,
        "pf": 0.4205557567656839
      },
      "9": {
        "qf": 0.011667061927343967,
        "qt": -0.0004217608199341201,
        "pt": -0.14840602652457002,
        "pf": 0.14840602652457002
      },
      "18": {
        "qf": -0.026365414122739586,
        "qt": 0.02660275582655404,
        "pt": 0.025383503828033022,
        "pf": -0.025282114299225743
      },
      "3": {
        "qf": 0.004741851448055121,
        "qt": 0.005580863081958397,
        "pt": -0.5424841341310078,
        "pf": 0.5559266922176398
      }
    },
    "gen": {
      "4": {
        "qg": 0.11545902237761062,
        "pg": -6.042123635573758e-9,
        "pg_cost": -2.4168494538644305e-5
      },
      "1": {
        "qg": 1.2768462728644271e-9,
        "pg": 1.943302614539052,
        "pg_cost": 5511.572979491754
      },
      "5": {
        "qg": 0.0827303957464151,
        "pg": 0.08494990585074669,
        "pg_cost": 340.52127205339184
      },
      "2": {
        "qg": 0.23685277832752696,
        "pg": 0.3671917774277722,
        "pg_cost": 1071.4580583819609
      },
      "3": {
        "qg": 0.24126906883432828,
        "pg": 0.2874277446754668,
        "pg_cost": 1157.9724495427897
      }
    },
    "multiinfrastructure": false,
    "multinetwork": false,
    "bus": {
      "4": {
        "va": -0.15123088255628858,
        "vm": 1.0144610819383209
      },
      "1": {
        "va": 0.0,
        "vm": 1.06000001043114
      },
      "12": {
        "va": -0.23619095334794746,
        "vm": 1.04482050008839
      },
      "2": {
        "va": -0.0702027176287108,
        "vm": 1.0407532428657045
      },
      "6": {
        "va": -0.22146931115956428,
        "vm": 1.060000009045258
      },
      "11": {
        "va": -0.22848065758531325,
        "vm": 1.0460097317271042
      },
      "13": {
        "va": -0.23706098745712545,
        "vm": 1.0399489859409845
      },
      "5": {
        "va": -0.129650793763417,
        "vm": 1.016362794290025
      },
      "14": {
        "va": -0.24913039169209664,
        "vm": 1.0238888959376629
      },
      "7": {
        "va": -0.1952656274991706,
        "vm": 1.046347168931662
      },
      "8": {
        "va": -0.18177360511808296,
        "vm": 1.0600000092537751
      },
      "10": {
        "va": -0.23095792212670707,
        "vm": 1.0391369729241915
      },
      "9": {
        "va": -0.226843412299317,
        "vm": 1.0436993923259148
      },
      "3": {
        "va": -0.1732399331203685,
        "vm": 1.0156254524501263
      }
    },
    "per_unit": true
  }
}

